33
Properties=species:S:1:pos:R:3:initial_charges:R:1 pbc="F F F"
O       -2.09140000       2.08700000      -0.67650000      -0.68000000
C        0.10010000      -1.86940000       0.33060000       0.00000000
C        0.91960000      -1.16840000      -0.75670000       0.00000000
C       -1.34860000      -2.14170000      -0.07980000       0.00000000
C        2.38710000      -0.96260000      -0.37510000       0.00000000
C       -2.07630000      -0.84320000      -0.43750000       0.00000000
C        2.51890000      -0.04580000       0.84330000       0.00000000
C       -2.07790000       0.13550000       0.74060000       0.00000000
C        1.88020000       1.31860000       0.58440000       0.00000000
C       -2.76860000       1.44970000       0.39700000       0.28000000
C        2.55690000       2.04010000      -0.57010000       0.00000000
H        0.12560000      -1.32190000       1.27580000       0.00000000
H        0.57020000      -2.83810000       0.54590000       0.00000000
H        0.47290000      -0.21900000      -1.05900000       0.00000000
H        0.89870000      -1.79810000      -1.65610000       0.00000000
H       -1.86950000      -2.65010000       0.74000000       0.00000000
H       -1.37080000      -2.81750000      -0.94270000       0.00000000
H        2.84230000      -1.93210000      -0.13830000       0.00000000
H        2.94350000      -0.56650000      -1.23110000       0.00000000
H       -3.11380000      -1.09010000      -0.69580000       0.00000000
H       -1.64550000      -0.38780000      -1.33470000       0.00000000
H        3.58430000       0.08510000       1.07040000       0.00000000
H        2.07550000      -0.50160000       1.73420000       0.00000000
H       -2.58180000      -0.32170000       1.60020000       0.00000000
H       -1.06090000       0.37810000       1.04970000       0.00000000
H        2.00930000       1.92560000       1.48930000       0.00000000
H        0.80490000       1.26390000       0.41480000       0.00000000
H       -2.75620000       2.11970000       1.26250000       0.00000000
H       -3.80850000       1.27640000       0.10200000       0.00000000
H        2.32520000       1.57800000      -1.53390000       0.00000000
H        3.64420000       2.06470000      -0.44480000       0.00000000
H        2.20340000       3.07570000      -0.61700000       0.00000000
H       -2.56200000       2.91830000      -0.85750000       0.40000000
