
     RDKit          3D

 25 26  0  0  0  0  0  0  0  0999 V2000
   -1.9370  -10.3880   19.3090 C   0  0  0  0  0  0  0  0  0  0  0  0
   -3.1720  -11.2150   19.0010 C   0  0  0  0  0  0  0  0  0  0  0  0
   -3.3160  -11.6680   17.8230 O   0  0  0  0  0  0  0  0  0  0  0  0
   -3.9720  -11.4220   19.9710 O   0  0  0  0  0  0  0  0  0  0  0  0
   -0.8640  -11.0350   19.9630 C   0  0  0  0  0  0  0  0  0  0  0  0
   -1.7990   -9.0220   18.9810 C   0  0  0  0  0  0  0  0  0  0  0  0
    0.3140  -10.3630   20.2840 C   0  0  0  0  0  0  0  0  0  0  0  0
   -0.6060   -8.3550   19.3300 C   0  0  0  0  0  0  0  0  0  0  0  0
   -2.8880   -8.2330   18.3700 C   0  0  0  0  0  0  0  0  0  0  0  0
    0.4440   -9.0190   19.9670 C   0  0  0  0  0  0  0  0  0  0  0  0
   -3.3830   -7.1140   18.9240 C   0  0  0  0  0  0  0  0  0  0  0  0
   -4.3750   -7.1060   19.9510 C   0  0  0  0  0  0  0  0  0  0  0  0
   -4.9030   -8.2100   20.6040 C   0  0  0  0  0  0  0  0  0  0  0  0
   -5.1440   -5.6680   20.5100 S   0  0  0  0  0  0  0  0  0  0  0  0
   -5.8970   -7.8760   21.5690 C   0  0  0  0  0  0  0  0  0  0  0  0
   -6.1200   -6.5210   21.6210 C   0  0  0  0  0  0  0  0  0  0  0  0
   -0.9614  -12.0987   20.2260 H   0  0  0  0  0  0  0  0  0  0  0  0
    1.1356  -10.8952   20.7857 H   0  0  0  0  0  0  0  0  0  0  0  0
   -0.5004   -7.2857   19.0945 H   0  0  0  0  0  0  0  0  0  0  0  0
   -3.3137   -8.5781   17.4162 H   0  0  0  0  0  0  0  0  0  0  0  0
    1.3695   -8.4791   20.2161 H   0  0  0  0  0  0  0  0  0  0  0  0
   -3.0016   -6.1466   18.5653 H   0  0  0  0  0  0  0  0  0  0  0  0
   -4.5854   -9.2426   20.3971 H   0  0  0  0  0  0  0  0  0  0  0  0
   -6.4215   -8.6125   22.1955 H   0  0  0  0  0  0  0  0  0  0  0  0
   -6.8423   -6.0424   22.2987 H   0  0  0  0  0  0  0  0  0  0  0  0
  1  2  1  0
  2  3  2  0
  2  4  1  0
  5  1  2  0
  1  6  1  0
  7  5  1  0
  6  8  2  0
  6  9  1  0
 10  7  2  0
  8 10  1  0
  9 11  2  0
 11 12  1  0
 12 13  2  0
 14 12  1  0
 13 15  1  0
 16 14  1  0
 15 16  2  0
  5 17  1  0
  7 18  1  0
  8 19  1  0
  9 20  1  0
 10 21  1  0
 11 22  1  0
 13 23  1  0
 15 24  1  0
 16 25  1  0
M  CHG  1   4  -1
M  END
