
     RDKit          3D

 22 22  0  0  0  0  0  0  0  0999 V2000
    0.0257    0.0752    0.3746 C   0  0  0  0  0  0  0  0  0  0  0  0
    0.2117    1.2553    1.1000 O   0  0  0  0  0  0  0  0  0  0  0  0
    0.3495    2.5112    0.4483 C   0  0  0  0  0  0  0  0  0  0  0  0
   -1.2784   -0.3654    0.0663 C   0  0  0  0  0  0  0  0  0  0  0  0
   -1.4518   -1.5272   -0.7015 C   0  0  0  0  0  0  0  0  0  0  0  0
   -2.4808    0.4285    0.4942 C   0  0  0  0  0  0  0  0  0  0  0  0
    1.1415   -0.6840   -0.0359 C   0  0  0  0  0  0  0  0  0  0  0  0
    0.9447   -1.8427   -0.8027 C   0  0  0  0  0  0  0  0  0  0  0  0
    2.5394   -0.2323    0.2822 C   0  0  0  0  0  0  0  0  0  0  0  0
   -0.3454   -2.2606   -1.1317 C   0  0  0  0  0  0  0  0  0  0  0  0
    0.4861    3.3045    1.2113 H   0  0  0  0  0  0  0  0  0  0  0  0
   -0.5611    2.7356   -0.1457 H   0  0  0  0  0  0  0  0  0  0  0  0
    1.2347    2.4992   -0.2215 H   0  0  0  0  0  0  0  0  0  0  0  0
   -2.4452   -1.8655   -0.9696 H   0  0  0  0  0  0  0  0  0  0  0  0
   -2.3265    0.8571    1.5069 H   0  0  0  0  0  0  0  0  0  0  0  0
   -2.6571    1.2522   -0.2284 H   0  0  0  0  0  0  0  0  0  0  0  0
   -3.3871   -0.2126    0.5341 H   0  0  0  0  0  0  0  0  0  0  0  0
    1.7912   -2.4231   -1.1485 H   0  0  0  0  0  0  0  0  0  0  0  0
    2.8620    0.5257   -0.4616 H   0  0  0  0  0  0  0  0  0  0  0  0
    2.5855    0.2105    1.2995 H   0  0  0  0  0  0  0  0  0  0  0  0
    3.2494   -1.0862    0.2538 H   0  0  0  0  0  0  0  0  0  0  0  0
   -0.4881   -3.1551   -1.7242 H   0  0  0  0  0  0  0  0  0  0  0  0
  1  2  1  0
  2  3  1  0
  1  4  2  0
  4  5  1  0
  4  6  1  0
  7  8  2  0
  7  9  1  0
  7  1  1  0
 10  5  2  0
 10  8  1  0
  3 11  1  0
  3 12  1  0
  3 13  1  0
  5 14  1  0
  6 15  1  0
  6 16  1  0
  6 17  1  0
  8 18  1  0
  9 19  1  0
  9 20  1  0
  9 21  1  0
 10 22  1  0
M  END
