
     RDKit          3D

 14 13  0  0  0  0  0  0  0  0999 V2000
   -2.0595    0.3580   -0.0597 C   0  0  0  0  0  0  0  0  0  0  0  0
   -2.9256   -0.3087   -0.2577 H   0  0  0  0  0  0  0  0  0  0  0  0
   -0.7597   -0.4346   -0.1482 C   0  0  1  0  0  0  0  0  0  0  0  0
   -0.6125   -1.1473   -1.7861 Cl  0  0  0  0  0  0  0  0  0  0  0  0
    0.3761    0.4506    0.1503 N   0  0  0  0  0  0  0  0  0  0  0  0
    1.5958   -0.3165    0.4304 C   0  0  0  0  0  0  0  0  0  0  0  0
    2.6312    0.5558    0.7906 O   0  0  0  0  0  0  0  0  0  0  0  0
    2.9319    0.9983   -0.0456 H   0  0  0  0  0  0  0  0  0  0  0  0
   -2.0615    1.1831   -0.8037 H   0  0  0  0  0  0  0  0  0  0  0  0
   -2.1710    0.7899    0.9576 H   0  0  0  0  0  0  0  0  0  0  0  0
   -0.8161   -1.2611    0.5950 H   0  0  0  0  0  0  0  0  0  0  0  0
    0.5526    1.0634   -0.6806 H   0  0  0  0  0  0  0  0  0  0  0  0
    1.8983   -0.9229   -0.4547 H   0  0  0  0  0  0  0  0  0  0  0  0
    1.4202   -1.0079    1.2826 H   0  0  0  0  0  0  0  0  0  0  0  0
  1  2  1  0
  1  3  1  0
  3  4  1  0
  3  5  1  0
  5  6  1  0
  6  7  1  0
  7  8  1  0
  1  9  1  0
  1 10  1  0
  3 11  1  1
  5 12  1  0
  6 13  1  0
  6 14  1  0
M  ISO  2   2   2   8   2
M  END
