
     RDKit          3D

 22 22  0  0  0  0  0  0  0  0999 V2000
   -1.0578    1.6690   -0.0599 C   0  0  0  0  0  0  0  0  0  0  0  0
   -1.9162    0.4029   -0.0070 C   0  0  0  0  0  0  0  0  0  0  0  0
   -1.2223   -0.8294   -0.6097 C   0  0  0  0  0  0  0  0  0  0  0  0
   -0.2228   -1.5119    0.3551 C   0  0  0  0  0  0  0  0  0  0  0  0
    1.2526   -1.3235   -0.0465 C   0  0  0  0  0  0  0  0  0  0  0  0
    1.8953   -0.0490    0.5207 C   0  0  0  0  0  0  0  0  0  0  0  0
    1.2524    1.2323   -0.0096 C   0  0  0  0  0  0  0  0  0  0  0  0
    0.0928    1.5274    0.7489 O   0  0  0  0  0  0  0  0  0  0  0  0
   -0.8560    1.9695   -1.1140 H   0  0  0  0  0  0  0  0  0  0  0  0
   -1.6617    2.4982    0.3659 H   0  0  0  0  0  0  0  0  0  0  0  0
   -2.8433    0.5995   -0.5888 H   0  0  0  0  0  0  0  0  0  0  0  0
   -2.2296    0.2005    1.0404 H   0  0  0  0  0  0  0  0  0  0  0  0
   -0.7514   -0.5662   -1.5816 H   0  0  0  0  0  0  0  0  0  0  0  0
   -2.0199   -1.5672   -0.8490 H   0  0  0  0  0  0  0  0  0  0  0  0
   -0.4301   -2.6048    0.3346 H   0  0  0  0  0  0  0  0  0  0  0  0
   -0.3807   -1.1943    1.4089 H   0  0  0  0  0  0  0  0  0  0  0  0
    1.8288   -2.1858    0.3550 H   0  0  0  0  0  0  0  0  0  0  0  0
    1.3726   -1.3566   -1.1513 H   0  0  0  0  0  0  0  0  0  0  0  0
    2.9683   -0.0495    0.2289 H   0  0  0  0  0  0  0  0  0  0  0  0
    1.8570   -0.0636    1.6322 H   0  0  0  0  0  0  0  0  0  0  0  0
    1.1022    1.1349   -1.1099 H   0  0  0  0  0  0  0  0  0  0  0  0
    1.9698    2.0677    0.1368 H   0  0  0  0  0  0  0  0  0  0  0  0
  1  2  1  0
  2  3  1  0
  3  4  1  0
  4  5  1  0
  5  6  1  0
  6  7  1  0
  7  8  1  0
  8  1  1  0
  1  9  1  0
  1 10  1  0
  2 11  1  0
  2 12  1  0
  3 13  1  0
  3 14  1  0
  4 15  1  0
  4 16  1  0
  5 17  1  0
  5 18  1  0
  6 19  1  0
  6 20  1  0
  7 21  1  0
  7 22  1  0
M  END
$$$$
