
     RDKit          3D

 14 13  0  0  0  0  0  0  0  0999 V2000
   -1.3026    0.3895   -0.6529 C   0  0  0  0  0  0  0  0  0  0  0  0
   -1.5423   -0.5829   -1.1342 H   0  0  0  0  0  0  0  0  0  0  0  0
   -2.1880    0.7317   -0.0761 H   0  0  0  0  0  0  0  0  0  0  0  0
   -0.0904    0.2497    0.2781 C   0  0  1  0  0  0  0  0  0  0  0  0
   -0.3695   -0.6968    1.3608 N   0  0  0  0  0  0  0  0  0  0  0  0
    1.1506   -0.2002   -0.5076 C   0  0  0  0  0  0  0  0  0  0  0  0
    2.2629   -0.2961    0.3411 O   0  0  0  0  0  0  0  0  0  0  0  0
    2.5632    0.6329    0.5219 H   0  0  0  0  0  0  0  0  0  0  0  0
   -1.0925    1.1401   -1.4444 H   0  0  0  0  0  0  0  0  0  0  0  0
    0.1206    1.2478    0.7231 H   0  0  0  0  0  0  0  0  0  0  0  0
   -0.6806   -1.6091    0.9532 H   0  0  0  0  0  0  0  0  0  0  0  0
   -1.1610   -0.3252    1.9352 H   0  0  0  0  0  0  0  0  0  0  0  0
    1.3633    0.5154   -1.3349 H   0  0  0  0  0  0  0  0  0  0  0  0
    0.9664   -1.1969   -0.9631 H   0  0  0  0  0  0  0  0  0  0  0  0
  1  2  1  0
  1  3  1  0
  1  4  1  0
  4  5  1  0
  4  6  1  0
  6  7  1  0
  7  8  1  0
  1  9  1  0
  4 10  1  1
  5 11  1  0
  5 12  1  0
  6 13  1  0
  6 14  1  0
M  ISO  3   2   2   3   2   8   2
M  END
