
 OpenBabel12052215043D

 29 29  0  0  1  0  0  0  0  0999 V2000
    5.0801    1.5819   -2.6695 N   0  3  0  0  0  0  0  0  0  0  0  0
    5.4027    2.3734   -2.0680 H   0  0  0  0  0  0  0  0  0  0  0  0
    4.3521    0.6187   -1.8390 C   0  0  0  0  0  0  0  0  0  0  0  0
    3.7972   -0.5443   -2.6885 C   0  0  2  0  0  0  0  0  0  0  0  0
    3.0117   -1.5886   -1.8587 C   0  0  0  0  0  0  0  0  0  0  0  0
    1.7902   -1.0203   -1.0968 C   0  0  1  0  0  0  0  0  0  0  0  0
    0.7435   -0.3983   -2.0523 C   0  0  0  0  0  0  0  0  0  0  0  0
   -0.5925   -0.9158   -1.5431 C   0  0  0  0  0  0  0  0  0  0  0  0
   -0.2388   -2.3614   -1.1674 C   0  0  2  0  0  0  0  0  0  0  0  0
    1.0146   -2.1200   -0.3371 C   0  0  0  0  0  0  0  0  0  0  0  0
    0.0927   -3.1297   -2.2993 O   0  0  0  0  0  0  0  0  0  0  0  0
    4.8373   -1.1892   -3.3833 O   0  0  0  0  0  0  0  0  0  0  0  0
    5.9157    1.1275   -3.1028 H   0  0  0  0  0  0  0  0  0  0  0  0
    4.4528    1.9572   -3.4174 H   0  0  0  0  0  0  0  0  0  0  0  0
    3.5171    1.1524   -1.3410 H   0  0  0  0  0  0  0  0  0  0  0  0
    5.0323    0.2217   -1.0521 H   0  0  0  0  0  0  0  0  0  0  0  0
    3.1118   -0.1148   -3.4498 H   0  0  0  0  0  0  0  0  0  0  0  0
    3.6987   -2.0586   -1.1225 H   0  0  0  0  0  0  0  0  0  0  0  0
    2.6665   -2.3870   -2.5532 H   0  0  0  0  0  0  0  0  0  0  0  0
    2.1304   -0.2923   -0.3294 H   0  0  0  0  0  0  0  0  0  0  0  0
    0.8573   -0.8563   -3.0610 H   0  0  0  0  0  0  0  0  0  0  0  0
    0.8239    0.7018   -2.1807 H   0  0  0  0  0  0  0  0  0  0  0  0
   -1.4168   -0.8185   -2.2817 H   0  0  0  0  0  0  0  0  0  0  0  0
   -0.8791   -0.3566   -0.6225 H   0  0  0  0  0  0  0  0  0  0  0  0
   -1.0343   -2.8849   -0.5915 H   0  0  0  0  0  0  0  0  0  0  0  0
    1.6026   -3.0173   -0.0481 H   0  0  0  0  0  0  0  0  0  0  0  0
    0.6518   -1.6648    0.6146 H   0  0  0  0  0  0  0  0  0  0  0  0
   -0.6542   -3.0392   -2.9454 H   0  0  0  0  0  0  0  0  0  0  0  0
    5.4663   -1.5582   -2.7088 H   0  0  0  0  0  0  0  0  0  0  0  0
  1  2  1  0  0  0  0
  1  3  1  0  0  0  0
  1 13  1  0  0  0  0
  1 14  1  0  0  0  0
  3 15  1  0  0  0  0
  3 16  1  0  0  0  0
  4 12  1  0  0  0  0
  4  5  1  0  0  0  0
  4  3  1  0  0  0  0
  4 17  1  6  0  0  0
  5 18  1  0  0  0  0
  5 19  1  0  0  0  0
  6  7  1  0  0  0  0
  6 10  1  0  0  0  0
  6  5  1  0  0  0  0
  6 20  1  1  0  0  0
  7  8  1  0  0  0  0
  7 21  1  0  0  0  0
  7 22  1  0  0  0  0
  8  9  1  0  0  0  0
  8 23  1  0  0  0  0
  8 24  1  0  0  0  0
  9 10  1  0  0  0  0
  9 11  1  0  0  0  0
  9 25  1  1  0  0  0
 10 26  1  0  0  0  0
 10 27  1  0  0  0  0
 11 28  1  0  0  0  0
 12 29  1  0  0  0  0
M  ISO  1   2   2
M  CHG  1   1   1
M  END
$$$$
