
 OpenBabel12052215193D

 12 12  0  0  0  0  0  0  0  0999 V2000
    1.0021    0.0211    0.3095 H   0  0  0  0  0  0  0  0  0  0  0  0
    2.0791    0.0670    0.1774 C   0  0  0  0  0  0  0  0  0  0  0  0
    2.6875    1.2514    0.0264 C   0  0  0  0  0  0  0  0  0  0  0  0
    2.1061    2.1685    0.0356 H   0  0  0  0  0  0  0  0  0  0  0  0
    4.1535    1.2984   -0.1519 C   0  0  0  0  0  0  0  0  0  0  0  0
    4.7281    2.3663   -0.2892 O   0  0  0  0  0  0  0  0  0  0  0  0
    4.9135    0.0277   -0.1613 C   0  0  0  0  0  0  0  0  0  0  0  0
    5.9906    0.0405   -0.2930 H   0  0  0  0  0  0  0  0  0  0  0  0
    4.3029   -1.1006   -0.0132 N   0  0  0  0  0  0  0  0  0  0  0  0
    2.8879   -1.1752    0.1635 C   0  0  0  0  0  0  0  0  0  0  0  0
    2.3146   -2.3137    0.3115 N   0  0  0  0  0  0  0  0  0  0  0  0
    2.8594   -3.1885    0.3058 H   0  0  0  0  0  0  0  0  0  0  0  0
  1  2  1  0  0  0  0
  2  3  2  0  0  0  0
  2 10  1  0  0  0  0
  3  4  1  0  0  0  0
  3  5  1  0  0  0  0
  5  6  2  0  0  0  0
  5  7  1  0  0  0  0
  7  8  1  0  0  0  0
  7  9  2  0  0  0  0
  9 10  1  0  0  0  0
 10 11  2  0  0  0  0
 11 12  1  0  0  0  0
M  ISO  3   1   2   4   2   8   2
M  END
$$$$
