
 OpenBabel02012219503D

 41 42  0  0  0  0  0  0  0  0999 V2000
    7.8869    1.1127    3.3209 C   0  0  0  0  0  0  0  0  0  0  0  0
    9.4719    0.9942    3.2678 C   0  0  0  0  0  0  0  0  0  0  0  0
   10.2755    1.9166    4.2596 C   0  0  0  0  0  0  0  0  0  0  0  0
   11.8236    2.0014    4.0431 C   0  0  0  0  0  0  0  0  0  0  0  0
   12.3678    3.3209    3.8722 O   0  0  0  0  0  0  0  0  0  0  0  0
   12.4458    3.7988    2.5207 C   0  0  0  0  0  0  0  0  0  0  0  0
   11.1277    4.4590    2.1303 C   0  0  0  0  0  0  0  0  0  0  0  0
   10.4999    3.8018    0.9974 N   0  0  0  0  0  0  0  0  0  0  0  0
    9.1003    3.8463    0.8997 C   0  0  0  0  0  0  0  0  0  0  0  0
    8.2787    4.4875    1.8188 C   0  0  0  0  0  0  0  0  0  0  0  0
    6.9100    4.3978    1.7655 C   0  0  0  0  0  0  0  0  0  0  0  0
    6.3490    3.6308    0.7580 C   0  0  0  0  0  0  0  0  0  0  0  0
    5.0330    3.3954    0.9176 O   0  0  0  0  0  0  0  0  0  0  0  0
    4.7079    2.0185    1.0933 C   0  0  0  0  0  0  0  0  0  0  0  0
    5.5163    1.0251    2.0074 C   0  0  0  0  0  0  0  0  0  0  0  0
    7.0677    0.7301    2.0208 C   0  0  0  0  0  0  0  0  0  0  0  0
    7.1108    3.1215   -0.2867 C   0  0  0  0  0  0  0  0  0  0  0  0
    8.5008    3.2162   -0.2040 C   0  0  0  0  0  0  0  0  0  0  0  0
    7.5580    0.4074    4.0984 H   0  0  0  0  0  0  0  0  0  0  0  0
    7.5968    2.1080    3.6631 H   0  0  0  0  0  0  0  0  0  0  0  0
    9.7312   -0.0396    3.5392 H   0  0  0  0  0  0  0  0  0  0  0  0
    9.8363    1.1474    2.2495 H   0  0  0  0  0  0  0  0  0  0  0  0
    9.8376    2.9156    4.3129 H   0  0  0  0  0  0  0  0  0  0  0  0
   10.1420    1.4825    5.2613 H   0  0  0  0  0  0  0  0  0  0  0  0
   12.2942    1.6799    4.9828 H   0  0  0  0  0  0  0  0  0  0  0  0
   12.2038    1.3263    3.2712 H   0  0  0  0  0  0  0  0  0  0  0  0
   12.7585    3.0028    1.8414 H   0  0  0  0  0  0  0  0  0  0  0  0
   13.2295    4.5680    2.4910 H   0  0  0  0  0  0  0  0  0  0  0  0
   11.2833    5.5096    1.8698 H   0  0  0  0  0  0  0  0  0  0  0  0
   10.5045    4.4559    3.0318 H   0  0  0  0  0  0  0  0  0  0  0  0
   10.8282    2.8288    0.8401 H   0  0  0  0  0  0  0  0  0  0  0  0
    8.6735    5.0356    2.6856 H   0  0  0  0  0  0  0  0  0  0  0  0
    6.2850    4.8214    2.5405 H   0  0  0  0  0  0  0  0  0  0  0  0
    3.7114    2.0820    1.5671 H   0  0  0  0  0  0  0  0  0  0  0  0
    4.4915    1.5898    0.1056 H   0  0  0  0  0  0  0  0  0  0  0  0
    5.0628    0.0695    1.6998 H   0  0  0  0  0  0  0  0  0  0  0  0
    5.1762    1.1743    3.0393 H   0  0  0  0  0  0  0  0  0  0  0  0
    7.1334   -0.3670    1.9715 H   0  0  0  0  0  0  0  0  0  0  0  0
    7.5617    1.0560    1.1091 H   0  0  0  0  0  0  0  0  0  0  0  0
    6.6502    2.5814   -1.1099 H   0  0  0  0  0  0  0  0  0  0  0  0
    9.1178    2.7515   -0.9646 H   0  0  0  0  0  0  0  0  0  0  0  0
  1  2  1  0  0  0  0
  1 16  1  0  0  0  0
  1 19  1  0  0  0  0
  1 20  1  0  0  0  0
  2  3  1  0  0  0  0
  2 21  1  0  0  0  0
  2 22  1  0  0  0  0
  3  4  1  0  0  0  0
  3 23  1  0  0  0  0
  3 24  1  0  0  0  0
  4  5  1  0  0  0  0
  4 25  1  0  0  0  0
  4 26  1  0  0  0  0
  5  6  1  0  0  0  0
  6  7  1  0  0  0  0
  6 27  1  0  0  0  0
  6 28  1  0  0  0  0
  7  8  1  0  0  0  0
  7 29  1  0  0  0  0
  7 30  1  0  0  0  0
  8  9  1  0  0  0  0
  8 31  1  0  0  0  0
  9 10  1  0  0  0  0
  9 18  2  0  0  0  0
 10 11  2  0  0  0  0
 10 32  1  0  0  0  0
 11 12  1  0  0  0  0
 11 33  1  0  0  0  0
 12 13  1  0  0  0  0
 12 17  2  0  0  0  0
 13 14  1  0  0  0  0
 14 15  1  0  0  0  0
 14 34  1  0  0  0  0
 14 35  1  0  0  0  0
 15 16  1  0  0  0  0
 15 36  1  0  0  0  0
 15 37  1  0  0  0  0
 16 38  1  0  0  0  0
 16 39  1  0  0  0  0
 17 18  1  0  0  0  0
 17 40  1  0  0  0  0
 18 41  1  0  0  0  0
M  END
$$$$
