
     RDKit          3D

 38 42  0  0  0  0  0  0  0  0999 V2000
   -1.2508   -0.7711   -0.4538 C   0  0  0  0  0  0  0  0  0  0  0  0
   -0.5378   -0.5352   -1.7319 C   0  0  0  0  0  0  0  0  0  0  0  0
   -1.1857   -0.5814   -2.8113 O   0  0  0  0  0  0  0  0  0  0  0  0
    0.8399   -0.1379   -1.7588 N   0  0  0  0  0  0  0  0  0  0  0  0
   -1.1135   -1.9956    0.2754 C   0  0  0  0  0  0  0  0  0  0  0  0
   -1.8879   -2.1974    1.4230 C   0  0  0  0  0  0  0  0  0  0  0  0
   -0.2664   -3.0715   -0.0638 O   0  0  0  0  0  0  0  0  0  0  0  0
    0.8331   -3.0852   -0.9679 C   0  0  0  0  0  0  0  0  0  0  0  0
    1.8487   -2.0677   -0.5667 C   0  0  0  0  0  0  0  0  0  0  0  0
    1.8223   -0.7481   -0.9198 C   0  0  0  0  0  0  0  0  0  0  0  0
    2.8421   -0.1106   -0.3142 N   0  0  0  0  0  0  0  0  0  0  0  0
    3.0939    1.3323   -0.2447 C   0  0  0  0  0  0  0  0  0  0  0  0
    3.4523   -1.0687    0.4182 C   0  0  0  0  0  0  0  0  0  0  0  0
    2.8670   -2.2836    0.2906 N   0  0  0  0  0  0  0  0  0  0  0  0
   -2.1808    0.2111    0.0145 C   0  0  0  0  0  0  0  0  0  0  0  0
   -2.9375   -0.0480    1.1679 C   0  0  0  0  0  0  0  0  0  0  0  0
   -2.4027    1.5549   -0.6708 C   0  0  0  0  0  0  0  0  0  0  0  0
   -1.9327    2.7488    0.1854 C   0  0  0  0  0  0  0  0  0  0  0  0
   -2.7886   -1.2380    1.8659 C   0  0  0  0  0  0  0  0  0  0  0  0
    1.8853    2.0215    0.3063 C   0  0  0  0  0  0  0  0  0  0  0  0
    1.2929    1.6993    1.5236 C   0  0  0  0  0  0  0  0  0  0  0  0
   -0.0238    2.0182    1.6182 N   0  0  0  0  0  0  0  0  0  0  0  0
   -0.4779    2.6345    0.5046 C   0  0  0  0  0  0  0  0  0  0  0  0
    0.7308    2.7793   -0.6516 S   0  0  0  0  0  0  0  0  0  0  0  0
    1.1602    0.5316   -2.4934 H   0  0  0  0  0  0  0  0  0  0  0  0
   -1.7914   -3.1218    1.9792 H   0  0  0  0  0  0  0  0  0  0  0  0
    1.3020   -4.0906   -0.9353 H   0  0  0  0  0  0  0  0  0  0  0  0
    0.4847   -2.9250   -2.0092 H   0  0  0  0  0  0  0  0  0  0  0  0
    3.9654    1.5404    0.4128 H   0  0  0  0  0  0  0  0  0  0  0  0
    3.3249    1.7190   -1.2600 H   0  0  0  0  0  0  0  0  0  0  0  0
    4.2924   -0.8815    1.0745 H   0  0  0  0  0  0  0  0  0  0  0  0
   -3.6533    0.6800    1.5297 H   0  0  0  0  0  0  0  0  0  0  0  0
   -3.4898    1.6740   -0.8697 H   0  0  0  0  0  0  0  0  0  0  0  0
   -1.9075    1.6119   -1.6605 H   0  0  0  0  0  0  0  0  0  0  0  0
   -2.5196    2.8080    1.1267 H   0  0  0  0  0  0  0  0  0  0  0  0
   -2.1055    3.6903   -0.3784 H   0  0  0  0  0  0  0  0  0  0  0  0
   -3.3789   -1.4206    2.7547 H   0  0  0  0  0  0  0  0  0  0  0  0
    1.7946    1.1246    2.2907 H   0  0  0  0  0  0  0  0  0  0  0  0
  1  2  1  0
  2  3  2  0
  2  4  1  0
  1  5  2  0
  5  6  1  0
  5  7  1  0
  7  8  1  0
  8  9  1  0
  9 10  2  0
 10 11  1  0
 11 12  1  0
 11 13  1  0
 13 14  2  0
 15 16  2  0
 15 17  1  0
 17 18  1  0
 20 21  2  0
 21 22  1  0
 22 23  2  0
 15  1  1  0
 19  6  2  0
 19 16  1  0
 14  9  1  0
 10  4  1  0
 20 12  1  0
 23 18  1  0
 24 20  1  0
 24 23  1  0
  4 25  1  0
  6 26  1  0
  8 27  1  0
  8 28  1  0
 12 29  1  0
 12 30  1  0
 13 31  1  0
 16 32  1  0
 17 33  1  0
 17 34  1  0
 18 35  1  0
 18 36  1  0
 19 37  1  0
 21 38  1  0
M  END
