
     RDKit          3D

 19 19  0  0  0  0  0  0  0  0999 V2000
    0.9961   -1.0201   -0.8345 C   0  0  0  0  0  0  0  0  0  0  0  0
    1.4988    0.0198    0.1394 C   0  0  0  0  0  0  0  0  0  0  0  0
    3.0263    0.0302   -0.0119 C   0  0  0  0  0  0  0  0  0  0  0  0
   -3.0518   -0.6687    0.1624 C   0  0  0  0  0  0  0  0  0  0  0  0
   -2.5445   -0.2356   -1.1948 C   0  0  0  0  0  0  0  0  0  0  0  0
   -1.0446   -0.0276   -1.1860 C   0  0  0  0  0  0  0  0  0  0  0  0
   -0.3656   -1.1813   -0.8469 O   0  0  0  0  0  0  0  0  0  0  0  0
    1.5575   -1.9556   -0.6984 H   0  0  0  0  0  0  0  0  0  0  0  0
    1.3094   -0.6439   -1.8540 H   0  0  0  0  0  0  0  0  0  0  0  0
    1.1789    1.0431   -0.1475 H   0  0  0  0  0  0  0  0  0  0  0  0
    1.2194   -0.1855    1.1778 H   0  0  0  0  0  0  0  0  0  0  0  0
    3.2998    0.2171   -1.0621 H   0  0  0  0  0  0  0  0  0  0  0  0
    3.4210   -0.9660    0.3008 H   0  0  0  0  0  0  0  0  0  0  0  0
   -2.6260   -1.6306    0.4880 H   0  0  0  0  0  0  0  0  0  0  0  0
   -4.1554   -0.7638    0.1073 H   0  0  0  0  0  0  0  0  0  0  0  0
   -3.0198    0.7274   -1.4423 H   0  0  0  0  0  0  0  0  0  0  0  0
   -2.8297   -0.9693   -1.9670 H   0  0  0  0  0  0  0  0  0  0  0  0
   -0.7390    0.2989   -2.1977 H   0  0  0  0  0  0  0  0  0  0  0  0
   -0.8149    0.8024   -0.4607 H   0  0  0  0  0  0  0  0  0  0  0  0
  1  2  1  0
  2  3  1  0
  4  5  1  0
  5  6  1  0
  6  7  1  0
  7  1  1  0
  1  8  1  0
  1  9  1  0
  2 10  1  0
  2 11  1  0
  3 12  1  0
  3 13  1  0
  4 14  1  0
  4 15  1  0
  5 16  1  0
  5 17  1  0
  6 18  1  0
  6 19  1  0
  3  4  1  0
M  END
