
 OpenBabel02032220153D

 51 53  0  0  1  0  0  0  0  0999 V2000
   -3.0324   -0.8210    0.3687 C   0  0  0  0  0  0  0  0  0  0  0  0
   -3.2500    0.6914    0.1525 C   0  0  0  0  0  0  0  0  0  0  0  0
   -2.4864    1.3720   -1.0303 C   0  0  0  0  0  0  0  0  0  0  0  0
   -0.9634    1.4062   -0.7731 C   0  0  3  0  0  0  0  0  0  0  0  0
   -0.3652    2.8034   -0.6172 C   0  0  0  0  0  0  0  0  0  0  0  0
    0.3670    2.8287    0.6230 O   0  0  0  0  0  0  0  0  0  0  0  0
    1.5478    2.0606    0.5579 C   0  0  0  0  0  0  0  0  0  0  0  0
   -0.0742    0.3822   -1.6801 C   0  0  0  0  0  0  0  0  0  0  0  0
    1.1012   -0.7411   -1.7738 C   0  0  0  0  0  0  0  0  0  0  0  0
    1.3908   -1.6270   -0.4870 C   0  0  3  0  0  0  0  0  0  0  0  0
    2.7449   -1.3899    0.1701 C   0  0  0  0  0  0  0  0  0  0  0  0
    2.8706   -0.0379    0.8566 C   0  0  0  0  0  0  0  0  0  0  0  0
    1.6214    0.7307    1.4191 C   0  0  3  0  0  0  0  0  0  0  0  0
    0.3106    0.0571    2.1348 C   0  0  0  0  0  0  0  0  0  0  0  0
   -0.7786   -1.1450    1.8410 C   0  0  0  0  0  0  0  0  0  0  0  0
   -1.5820   -1.3632    0.5046 C   0  0  3  0  0  0  0  0  0  0  0  0
   -1.5324   -2.7249   -0.2554 C   0  0  0  0  0  0  0  0  0  0  0  0
   -0.3191   -3.6430   -0.2282 C   0  0  0  0  0  0  0  0  0  0  0  0
    1.1013   -3.1342   -0.5025 C   0  0  0  0  0  0  0  0  0  0  0  0
   -3.5005   -1.2925   -0.5105 H   0  0  0  0  0  0  0  0  0  0  0  0
   -3.6337   -1.1604    1.2199 H   0  0  0  0  0  0  0  0  0  0  0  0
   -3.0364    1.2188    1.0876 H   0  0  0  0  0  0  0  0  0  0  0  0
   -4.3230    0.8386   -0.0361 H   0  0  0  0  0  0  0  0  0  0  0  0
   -2.8779    2.3937   -1.1060 H   0  0  0  0  0  0  0  0  0  0  0  0
   -2.7322    0.8806   -1.9755 H   0  0  0  0  0  0  0  0  0  0  0  0
   -0.9468    1.0699    0.2661 H   0  0  0  0  0  0  0  0  0  0  0  0
   -1.1398    3.5697   -0.5186 H   0  0  0  0  0  0  0  0  0  0  0  0
    0.2756    3.0903   -1.4607 H   0  0  0  0  0  0  0  0  0  0  0  0
    2.3576    2.7205    0.9191 H   0  0  0  0  0  0  0  0  0  0  0  0
    1.8331    1.8565   -0.4827 H   0  0  0  0  0  0  0  0  0  0  0  0
   -0.8800   -0.2747   -2.0189 H   0  0  0  0  0  0  0  0  0  0  0  0
    0.3895    0.3560   -0.7078 H   0  0  0  0  0  0  0  0  0  0  0  0
    2.0177   -0.2126   -2.0622 H   0  0  0  0  0  0  0  0  0  0  0  0
    0.8593   -1.4074   -2.6100 H   0  0  0  0  0  0  0  0  0  0  0  0
    0.7423   -1.2868    0.2729 H   0  0  0  0  0  0  0  0  0  0  0  0
    3.5542   -1.5195   -0.5481 H   0  0  0  0  0  0  0  0  0  0  0  0
    2.9373   -2.1356    0.9577 H   0  0  0  0  0  0  0  0  0  0  0  0
    3.3903    0.6017    0.1243 H   0  0  0  0  0  0  0  0  0  0  0  0
    3.6157   -0.1356    1.6585 H   0  0  0  0  0  0  0  0  0  0  0  0
    2.0608    1.1642    2.3348 H   0  0  0  0  0  0  0  0  0  0  0  0
   -0.2917    0.9088    2.4770 H   0  0  0  0  0  0  0  0  0  0  0  0
    0.7672   -0.3354    3.0603 H   0  0  0  0  0  0  0  0  0  0  0  0
   -1.5335   -1.0266    2.6335 H   0  0  0  0  0  0  0  0  0  0  0  0
   -0.2733   -2.0869    2.0935 H   0  0  0  0  0  0  0  0  0  0  0  0
   -1.0501   -0.7812   -0.1748 H   0  0  0  0  0  0  0  0  0  0  0  0
   -1.6973   -2.4924   -1.3214 H   0  0  0  0  0  0  0  0  0  0  0  0
   -2.4033   -3.3262    0.0343 H   0  0  0  0  0  0  0  0  0  0  0  0
   -0.5046   -4.4356   -0.9695 H   0  0  0  0  0  0  0  0  0  0  0  0
   -0.3315   -4.1714    0.7347 H   0  0  0  0  0  0  0  0  0  0  0  0
    1.5207   -3.5951   -1.4027 H   0  0  0  0  0  0  0  0  0  0  0  0
    1.6824   -3.6051    0.3188 H   0  0  0  0  0  0  0  0  0  0  0  0
  1  2  1  0  0  0  0
  1 16  1  0  0  0  0
  1 20  1  0  0  0  0
  1 21  1  0  0  0  0
  2  3  1  0  0  0  0
  2 22  1  0  0  0  0
  2 23  1  0  0  0  0
  3  4  1  0  0  0  0
  3 24  1  0  0  0  0
  3 25  1  0  0  0  0
  4  5  1  0  0  0  0
  4  8  1  0  0  0  0
  4 26  1  0  0  0  0
  5  6  1  0  0  0  0
  5 27  1  0  0  0  0
  5 28  1  0  0  0  0
  6  7  1  0  0  0  0
  7 13  1  0  0  0  0
  7 29  1  0  0  0  0
  7 30  1  0  0  0  0
  8  9  1  0  0  0  0
  8 31  1  0  0  0  0
  8 32  1  0  0  0  0
  9 10  1  0  0  0  0
  9 33  1  0  0  0  0
  9 34  1  0  0  0  0
 10 11  1  0  0  0  0
 10 19  1  0  0  0  0
 10 35  1  0  0  0  0
 11 12  1  0  0  0  0
 11 36  1  0  0  0  0
 11 37  1  0  0  0  0
 12 13  1  0  0  0  0
 12 38  1  0  0  0  0
 12 39  1  0  0  0  0
 13 14  1  0  0  0  0
 13 40  1  0  0  0  0
 14 15  1  0  0  0  0
 14 41  1  0  0  0  0
 14 42  1  0  0  0  0
 15 16  1  0  0  0  0
 15 43  1  0  0  0  0
 15 44  1  0  0  0  0
 16 17  1  0  0  0  0
 16 45  1  0  0  0  0
 17 18  1  0  0  0  0
 17 46  1  0  0  0  0
 17 47  1  0  0  0  0
 18 19  1  0  0  0  0
 18 48  1  0  0  0  0
 18 49  1  0  0  0  0
 19 50  1  0  0  0  0
 19 51  1  0  0  0  0
M  END
$$$$
