
 OpenBabel02032220163D

 50 52  0  0  1  0  0  0  0  0999 V2000
   -1.1126    2.4737    0.4794 C   0  0  0  0  0  0  0  0  0  0  0  0
   -1.9912    2.0477   -0.7296 C   0  0  0  0  0  0  0  0  0  0  0  0
   -2.7216    0.7188   -0.5442 C   0  0  0  0  0  0  0  0  0  0  0  0
   -2.1922   -0.6329   -1.1547 C   0  0  3  0  0  0  0  0  0  0  0  0
   -2.5377   -1.8157   -0.1675 C   0  0  0  0  0  0  0  0  0  0  0  0
   -1.4123   -2.7225    0.3247 C   0  0  0  0  0  0  0  0  0  0  0  0
   -0.8912   -0.7742   -2.0573 C   0  0  0  0  0  0  0  0  0  0  0  0
    0.6620   -0.3970   -2.0246 C   0  0  0  0  0  0  0  0  0  0  0  0
    1.9399   -0.5338   -1.0662 C   0  0  3  0  0  0  0  0  0  0  0  0
    2.1477   -1.5960    0.0400 C   0  0  0  0  0  0  0  0  0  0  0  0
    1.0426   -2.5682    0.2622 C   0  0  0  0  0  0  0  0  0  0  0  0
   -0.1843   -2.0631    1.0466 C   0  0  3  0  0  0  0  0  0  0  0  0
   -0.4623   -0.5581    1.2536 C   0  0  0  0  0  0  0  0  0  0  0  0
    0.4095    0.6425    1.6186 C   0  0  0  0  0  0  0  0  0  0  0  0
    0.2396    1.7368    0.4984 C   0  0  3  0  0  0  0  0  0  0  0  0
    1.4544    2.6480    0.3459 C   0  0  0  0  0  0  0  0  0  0  0  0
    2.3231    2.1656   -0.8313 C   0  0  0  0  0  0  0  0  0  0  0  0
    2.8262    0.7284   -0.6922 C   0  0  0  0  0  0  0  0  0  0  0  0
   -1.6577    2.3354    1.4198 H   0  0  0  0  0  0  0  0  0  0  0  0
   -0.9523    3.5543    0.3832 H   0  0  0  0  0  0  0  0  0  0  0  0
   -1.4358    2.0729   -1.6723 H   0  0  0  0  0  0  0  0  0  0  0  0
   -2.7673    2.8217   -0.8219 H   0  0  0  0  0  0  0  0  0  0  0  0
   -3.7280    0.8589   -0.9686 H   0  0  0  0  0  0  0  0  0  0  0  0
   -2.9288    0.6035    0.5276 H   0  0  0  0  0  0  0  0  0  0  0  0
   -2.9641   -0.8035   -1.9277 H   0  0  0  0  0  0  0  0  0  0  0  0
   -3.2740   -2.4619   -0.6644 H   0  0  0  0  0  0  0  0  0  0  0  0
   -3.0708   -1.4471    0.7177 H   0  0  0  0  0  0  0  0  0  0  0  0
   -1.1070   -3.3150   -0.5415 H   0  0  0  0  0  0  0  0  0  0  0  0
   -1.8365   -3.4724    1.0097 H   0  0  0  0  0  0  0  0  0  0  0  0
   -1.2039   -0.1849   -2.9395 H   0  0  0  0  0  0  0  0  0  0  0  0
   -0.9303   -1.8082   -2.4289 H   0  0  0  0  0  0  0  0  0  0  0  0
    0.7389    0.5898   -2.4954 H   0  0  0  0  0  0  0  0  0  0  0  0
    0.9843   -1.0531   -2.8570 H   0  0  0  0  0  0  0  0  0  0  0  0
    2.6239   -0.9642   -1.8238 H   0  0  0  0  0  0  0  0  0  0  0  0
    2.4382   -1.1704    1.0050 H   0  0  0  0  0  0  0  0  0  0  0  0
    3.0415   -2.1782   -0.2395 H   0  0  0  0  0  0  0  0  0  0  0  0
    1.4502   -3.4257    0.8263 H   0  0  0  0  0  0  0  0  0  0  0  0
    0.8010   -2.9955   -0.7219 H   0  0  0  0  0  0  0  0  0  0  0  0
   -0.1118   -2.5032    2.0505 H   0  0  0  0  0  0  0  0  0  0  0  0
   -1.3791   -0.4689    1.8437 H   0  0  0  0  0  0  0  0  0  0  0  0
   -0.6861   -0.2986    0.2524 H   0  0  0  0  0  0  0  0  0  0  0  0
    1.4506    0.3734    1.7712 H   0  0  0  0  0  0  0  0  0  0  0  0
    0.0696    1.0611    2.5727 H   0  0  0  0  0  0  0  0  0  0  0  0
    0.2206    1.2195   -0.4481 H   0  0  0  0  0  0  0  0  0  0  0  0
    2.0425    2.6774    1.2696 H   0  0  0  0  0  0  0  0  0  0  0  0
    1.1611    3.6822    0.1295 H   0  0  0  0  0  0  0  0  0  0  0  0
    3.1987    2.8266   -0.8748 H   0  0  0  0  0  0  0  0  0  0  0  0
    1.8012    2.3059   -1.7830 H   0  0  0  0  0  0  0  0  0  0  0  0
    3.2053    0.6288    0.3340 H   0  0  0  0  0  0  0  0  0  0  0  0
    3.7381    0.6601   -1.3027 H   0  0  0  0  0  0  0  0  0  0  0  0
  1  2  1  0  0  0  0
  1 15  1  0  0  0  0
  1 19  1  0  0  0  0
  1 20  1  0  0  0  0
  2  3  1  0  0  0  0
  2 21  1  0  0  0  0
  2 22  1  0  0  0  0
  3  4  1  0  0  0  0
  3 23  1  0  0  0  0
  3 24  1  0  0  0  0
  4  5  1  0  0  0  0
  4  7  1  0  0  0  0
  4 25  1  0  0  0  0
  5  6  1  0  0  0  0
  5 26  1  0  0  0  0
  5 27  1  0  0  0  0
  6 12  1  0  0  0  0
  6 28  1  0  0  0  0
  6 29  1  0  0  0  0
  7  8  1  0  0  0  0
  7 30  1  0  0  0  0
  7 31  1  0  0  0  0
  8  9  1  0  0  0  0
  8 32  1  0  0  0  0
  8 33  1  0  0  0  0
  9 10  1  0  0  0  0
  9 18  1  0  0  0  0
  9 34  1  0  0  0  0
 10 11  1  0  0  0  0
 10 35  1  0  0  0  0
 10 36  1  0  0  0  0
 11 12  1  0  0  0  0
 11 37  1  0  0  0  0
 11 38  1  0  0  0  0
 12 13  1  0  0  0  0
 12 39  1  0  0  0  0
 13 14  1  0  0  0  0
 13 40  1  0  0  0  0
 13 41  1  0  0  0  0
 14 15  1  0  0  0  0
 14 42  1  0  0  0  0
 14 43  1  0  0  0  0
 15 16  1  0  0  0  0
 15 44  1  0  0  0  0
 16 17  1  0  0  0  0
 16 45  1  0  0  0  0
 16 46  1  0  0  0  0
 17 18  1  0  0  0  0
 17 47  1  0  0  0  0
 17 48  1  0  0  0  0
 18 49  1  0  0  0  0
 18 50  1  0  0  0  0
M  END
$$$$
