14

C          2.99212        1.26007        0.00000
C          0.86603       -2.50000        0.00000
C         -0.86603        0.50000        0.00000
C          3.27089       -0.50000        0.00000
C          1.73205       -0.00000        0.00000
C          1.73205       -1.00000        0.00000
C          0.86603        0.50000        0.00000
C          0.00000       -1.00000        0.00000
N          2.68311       -1.30902        0.00000
N          2.68311        0.30902        0.00000
N          0.86603       -1.50000        0.00000
N          0.00000       -0.00000        0.00000
O          0.86603        1.50000        0.00000
O         -0.86603       -1.50000        0.00000
