
     RDKit          3D

 26 28  0  0  0  0  0  0  0  0999 V2000
    0.0185    0.6173    1.6071 C   0  0  0  0  0  0  0  0  0  0  0  0
   -1.0671   -0.2184    1.0393 C   0  0  0  0  0  0  0  0  0  0  0  0
   -0.4056   -1.5466    0.6370 C   0  0  0  0  0  0  0  0  0  0  0  0
    0.5887   -1.2760   -0.4432 C   0  0  0  0  0  0  0  0  0  0  0  0
    0.0287   -0.5775   -1.6403 C   0  0  0  0  0  0  0  0  0  0  0  0
   -0.6698    0.6949   -1.2260 C   0  0  0  0  0  0  0  0  0  0  0  0
    0.3417    1.6020   -0.5893 C   0  0  0  0  0  0  0  0  0  0  0  0
    1.0787    0.9264    0.5449 C   0  0  0  0  0  0  0  0  0  0  0  0
    1.6795   -0.3969    0.1377 C   0  0  0  0  0  0  0  0  0  0  0  0
   -1.7122    0.3153   -0.1943 C   0  0  0  0  0  0  0  0  0  0  0  0
   -0.2819    1.5422    2.0890 H   0  0  0  0  0  0  0  0  0  0  0  0
    0.5625   -0.0243    2.3624 H   0  0  0  0  0  0  0  0  0  0  0  0
   -1.8405   -0.3721    1.8115 H   0  0  0  0  0  0  0  0  0  0  0  0
    0.1704   -1.8563    1.5488 H   0  0  0  0  0  0  0  0  0  0  0  0
   -1.2129   -2.2263    0.3745 H   0  0  0  0  0  0  0  0  0  0  0  0
    1.0318   -2.2294   -0.7804 H   0  0  0  0  0  0  0  0  0  0  0  0
   -0.5975   -1.2650   -2.2108 H   0  0  0  0  0  0  0  0  0  0  0  0
    0.8800   -0.2779   -2.2885 H   0  0  0  0  0  0  0  0  0  0  0  0
   -1.1050    1.2169   -2.0835 H   0  0  0  0  0  0  0  0  0  0  0  0
    1.0665    1.9373   -1.3292 H   0  0  0  0  0  0  0  0  0  0  0  0
   -0.2385    2.4433   -0.1166 H   0  0  0  0  0  0  0  0  0  0  0  0
    1.8435    1.6024    0.9352 H   0  0  0  0  0  0  0  0  0  0  0  0
    2.5365   -0.2844   -0.5524 H   0  0  0  0  0  0  0  0  0  0  0  0
    2.0448   -0.8994    1.0440 H   0  0  0  0  0  0  0  0  0  0  0  0
   -2.4599    1.1011   -0.0271 H   0  0  0  0  0  0  0  0  0  0  0  0
   -2.2810   -0.5486   -0.6500 H   0  0  0  0  0  0  0  0  0  0  0  0
  1  2  1  0
  2  3  1  0
  3  4  1  0
  4  5  1  0
  5  6  1  0
  6  7  1  0
  7  8  1  0
  8  9  1  0
  6 10  1  0
  8  1  1  0
  9  4  1  0
 10  2  1  0
  1 11  1  0
  1 12  1  0
  2 13  1  0
  3 14  1  0
  3 15  1  0
  4 16  1  0
  5 17  1  0
  5 18  1  0
  6 19  1  0
  7 20  1  0
  7 21  1  0
  8 22  1  0
  9 23  1  0
  9 24  1  0
 10 25  1  0
 10 26  1  0
M  END
