
     RDKit          3D

 27 29  0  0  0  0  0  0  0  0999 V2000
   -0.3058   -0.8913    1.5297 C   0  0  0  0  0  0  0  0  0  0  0  0
   -1.0005    0.3575    1.0975 C   0  0  0  0  0  0  0  0  0  0  0  0
   -1.8160    0.1485   -0.1541 C   0  0  0  0  0  0  0  0  0  0  0  0
   -0.8461   -0.2650   -1.2490 C   0  0  0  0  0  0  0  0  0  0  0  0
    0.1618    0.8038   -1.5027 C   0  0  0  0  0  0  0  0  0  0  0  0
    0.9346    1.1803   -0.2759 C   0  0  0  0  0  0  0  0  0  0  0  0
    2.0629    0.2693    0.0460 C   0  0  0  0  0  0  0  0  0  0  0  0
    1.8181   -0.9865    0.3806 O   0  0  0  0  0  0  0  0  0  0  0  0
    0.5709   -1.4856    0.4296 C   0  0  0  0  0  0  0  0  0  0  0  0
   -0.1721   -1.5365   -0.8749 C   0  0  0  0  0  0  0  0  0  0  0  0
    0.0075    1.4297    0.8789 C   0  0  0  0  0  0  0  0  0  0  0  0
   -1.1002   -1.6458    1.7716 H   0  0  0  0  0  0  0  0  0  0  0  0
    0.2630   -0.7131    2.4368 H   0  0  0  0  0  0  0  0  0  0  0  0
   -1.6846    0.6664    1.8914 H   0  0  0  0  0  0  0  0  0  0  0  0
   -2.3869    1.0415   -0.3978 H   0  0  0  0  0  0  0  0  0  0  0  0
   -2.5272   -0.6772    0.0468 H   0  0  0  0  0  0  0  0  0  0  0  0
   -1.4416   -0.4247   -2.1544 H   0  0  0  0  0  0  0  0  0  0  0  0
   -0.3956    1.7232   -1.8510 H   0  0  0  0  0  0  0  0  0  0  0  0
    0.7958    0.5046   -2.3388 H   0  0  0  0  0  0  0  0  0  0  0  0
    1.3981    2.1881   -0.5080 H   0  0  0  0  0  0  0  0  0  0  0  0
    2.6621    0.7707    0.8642 H   0  0  0  0  0  0  0  0  0  0  0  0
    2.7677    0.2974   -0.8377 H   0  0  0  0  0  0  0  0  0  0  0  0
    0.6779   -2.5731    0.7390 H   0  0  0  0  0  0  0  0  0  0  0  0
   -0.9751   -2.3227   -0.7741 H   0  0  0  0  0  0  0  0  0  0  0  0
    0.5072   -1.8903   -1.6596 H   0  0  0  0  0  0  0  0  0  0  0  0
   -0.5546    2.3855    0.6609 H   0  0  0  0  0  0  0  0  0  0  0  0
    0.5788    1.6453    1.8047 H   0  0  0  0  0  0  0  0  0  0  0  0
  1  2  1  0
  2  3  1  0
  3  4  1  0
  4  5  1  0
  5  6  1  0
  6  7  1  0
  7  8  1  0
  8  9  1  0
  9 10  1  0
  6 11  1  0
  9  1  1  0
 10  4  1  0
 11  2  1  0
  1 12  1  0
  1 13  1  0
  2 14  1  0
  3 15  1  0
  3 16  1  0
  4 17  1  0
  5 18  1  0
  5 19  1  0
  6 20  1  0
  7 21  1  0
  7 22  1  0
  9 23  1  0
 10 24  1  0
 10 25  1  0
 11 26  1  0
 11 27  1  0
M  END
