
     RDKit          3D

 49 52  0  0  0  0  0  0  0  0999 V2000
    1.1003    2.1081    1.2047 C   0  0  0  0  0  0  0  0  0  0  0  0
    1.9487    1.5171    0.1497 C   0  0  0  0  0  0  0  0  0  0  0  0
    2.6926    0.2804    0.5372 C   0  0  0  0  0  0  0  0  0  0  0  0
    3.2281   -0.4155   -0.7183 C   0  0  0  0  0  0  0  0  0  0  0  0
    2.0486   -0.8114   -1.5927 C   0  0  0  0  0  0  0  0  0  0  0  0
    1.0798   -1.6750   -0.8559 C   0  0  0  0  0  0  0  0  0  0  0  0
   -0.1461   -1.8350   -1.6834 C   0  0  0  0  0  0  0  0  0  0  0  0
   -0.4249   -0.5646   -2.2561 O   0  0  0  0  0  0  0  0  0  0  0  0
   -0.8608    0.6536   -1.6966 C   0  0  0  0  0  0  0  0  0  0  0  0
   -1.1127    1.1911   -0.4730 C   0  0  0  0  0  0  0  0  0  0  0  0
   -1.5515    2.5279   -0.4290 C   0  0  0  0  0  0  0  0  0  0  0  0
   -1.7259    3.2772   -1.5556 C   0  0  0  0  0  0  0  0  0  0  0  0
   -1.4743    2.7412   -2.7934 C   0  0  0  0  0  0  0  0  0  0  0  0
   -1.0462    1.4380   -2.8380 C   0  0  0  0  0  0  0  0  0  0  0  0
   -1.1045    0.8160    0.9367 C   0  0  0  0  0  0  0  0  0  0  0  0
    0.0196    1.2863    1.7878 C   0  0  0  0  0  0  0  0  0  0  0  0
   -1.3315   -2.3386   -0.9041 C   0  0  0  0  0  0  0  0  0  0  0  0
   -1.3943   -1.8130    0.4733 C   0  0  0  0  0  0  0  0  0  0  0  0
   -1.3136   -0.6474    1.1884 C   0  0  0  0  0  0  0  0  0  0  0  0
   -1.4571   -0.6782    2.5667 C   0  0  0  0  0  0  0  0  0  0  0  0
   -1.6819   -1.8695    3.2490 C   0  0  0  0  0  0  0  0  0  0  0  0
   -1.7650   -3.0447    2.5499 C   0  0  0  0  0  0  0  0  0  0  0  0
   -1.6187   -2.9748    1.1897 C   0  0  0  0  0  0  0  0  0  0  0  0
    0.6196    3.0265    0.7661 H   0  0  0  0  0  0  0  0  0  0  0  0
    1.7549    2.4371    2.0659 H   0  0  0  0  0  0  0  0  0  0  0  0
    2.7929    2.3268    0.0186 H   0  0  0  0  0  0  0  0  0  0  0  0
    1.5201    1.5308   -0.8523 H   0  0  0  0  0  0  0  0  0  0  0  0
    2.1912   -0.4043    1.2191 H   0  0  0  0  0  0  0  0  0  0  0  0
    3.6417    0.5657    1.0909 H   0  0  0  0  0  0  0  0  0  0  0  0
    3.7989    0.3406   -1.2774 H   0  0  0  0  0  0  0  0  0  0  0  0
    3.8517   -1.2615   -0.4829 H   0  0  0  0  0  0  0  0  0  0  0  0
    2.5085   -1.4653   -2.3887 H   0  0  0  0  0  0  0  0  0  0  0  0
    1.6086    0.0355   -2.0726 H   0  0  0  0  0  0  0  0  0  0  0  0
    1.5428   -2.6820   -0.6280 H   0  0  0  0  0  0  0  0  0  0  0  0
    0.7720   -1.2246    0.1095 H   0  0  0  0  0  0  0  0  0  0  0  0
    0.0511   -2.5350   -2.4974 H   0  0  0  0  0  0  0  0  0  0  0  0
   -1.7607    2.9798    0.5382 H   0  0  0  0  0  0  0  0  0  0  0  0
   -2.0681    4.3163   -1.5019 H   0  0  0  0  0  0  0  0  0  0  0  0
   -1.6206    3.3540   -3.6621 H   0  0  0  0  0  0  0  0  0  0  0  0
   -0.8390    0.9851   -3.7973 H   0  0  0  0  0  0  0  0  0  0  0  0
   -2.0834    1.2872    1.3847 H   0  0  0  0  0  0  0  0  0  0  0  0
   -0.4481    1.8430    2.6808 H   0  0  0  0  0  0  0  0  0  0  0  0
    0.4317    0.3637    2.3193 H   0  0  0  0  0  0  0  0  0  0  0  0
   -2.2374   -1.9759   -1.4365 H   0  0  0  0  0  0  0  0  0  0  0  0
   -1.2994   -3.4262   -0.9134 H   0  0  0  0  0  0  0  0  0  0  0  0
   -1.4087    0.2256    3.1842 H   0  0  0  0  0  0  0  0  0  0  0  0
   -1.7949   -1.8987    4.3313 H   0  0  0  0  0  0  0  0  0  0  0  0
   -1.9399   -3.9652    3.0899 H   0  0  0  0  0  0  0  0  0  0  0  0
   -1.6942   -3.9483    0.6748 H   0  0  0  0  0  0  0  0  0  0  0  0
  1  2  1  0
  2  3  1  0
  3  4  1  0
  4  5  1  0
  5  6  1  0
  6  7  1  0
  7  8  1  0
  8  9  1  0
  9 10  1  0
 10 11  2  0
 11 12  1  0
 12 13  2  0
 13 14  1  0
 10 15  1  0
 15 16  1  0
  7 17  1  0
 17 18  1  0
 18 19  2  0
 19 20  1  0
 20 21  2  0
 21 22  1  0
 22 23  2  0
 16  1  1  0
 14  9  2  0
 23 18  1  0
 19 15  1  0
  1 24  1  0
  1 25  1  0
  2 26  1  0
  2 27  1  0
  3 28  1  0
  3 29  1  0
  4 30  1  0
  4 31  1  0
  5 32  1  0
  5 33  1  0
  6 34  1  0
  6 35  1  0
  7 36  1  0
 11 37  1  0
 12 38  1  0
 13 39  1  0
 14 40  1  0
 15 41  1  0
 16 42  1  0
 16 43  1  0
 17 44  1  0
 17 45  1  0
 20 46  1  0
 21 47  1  0
 22 48  1  0
 23 49  1  0
M  END
