
     RDKit          3D

 38 41  0  0  0  0  0  0  0  0999 V2000
    2.2570    3.0070    0.4197 C   0  0  0  0  0  0  0  0  0  0  0  0
    2.1958    1.6800    0.2293 C   0  0  0  0  0  0  0  0  0  0  0  0
    1.0368    0.9169   -0.0563 C   0  0  0  0  0  0  0  0  0  0  0  0
   -0.1537    1.6350   -0.1333 C   0  0  0  0  0  0  0  0  0  0  0  0
   -1.4017    0.9313   -0.3136 N   0  0  0  0  0  0  0  0  0  0  0  0
   -1.5024    0.2015   -1.6480 C   0  0  0  0  0  0  0  0  0  0  0  0
   -2.5391    0.7748    0.6057 C   0  0  0  0  0  0  0  0  0  0  0  0
   -0.0335    3.0458    0.0709 C   0  0  0  0  0  0  0  0  0  0  0  0
    1.1056    3.7139    0.3355 C   0  0  0  0  0  0  0  0  0  0  0  0
    1.3019   -0.5075   -0.3497 C   0  0  0  0  0  0  0  0  0  0  0  0
    0.4959   -1.6198   -0.1360 C   0  0  0  0  0  0  0  0  0  0  0  0
    1.1091   -2.8837   -0.4057 C   0  0  0  0  0  0  0  0  0  0  0  0
    2.3670   -3.0744   -0.8477 C   0  0  0  0  0  0  0  0  0  0  0  0
    3.1483   -1.9869   -1.0654 C   0  0  0  0  0  0  0  0  0  0  0  0
    2.6108   -0.7813   -0.8186 C   0  0  0  0  0  0  0  0  0  0  0  0
   -0.8850   -1.4290    0.2457 N   0  0  0  0  0  0  0  0  0  0  0  0
   -2.0988   -1.6719   -0.5454 C   0  0  0  0  0  0  0  0  0  0  0  0
   -2.3250   -0.8627   -1.6027 O   0  0  0  0  0  0  0  0  0  0  0  0
   -1.0525   -0.8411    1.6350 C   0  0  0  0  0  0  0  0  0  0  0  0
   -2.3077   -0.0742    1.7942 C   0  0  0  0  0  0  0  0  0  0  0  0
    3.1956    3.5303    0.6395 H   0  0  0  0  0  0  0  0  0  0  0  0
    3.1851    1.1781    0.3574 H   0  0  0  0  0  0  0  0  0  0  0  0
   -0.5253   -0.1144   -1.9903 H   0  0  0  0  0  0  0  0  0  0  0  0
   -1.9285    0.8981   -2.4034 H   0  0  0  0  0  0  0  0  0  0  0  0
   -3.4413    0.3720    0.0525 H   0  0  0  0  0  0  0  0  0  0  0  0
   -2.9965    1.7190    0.9986 H   0  0  0  0  0  0  0  0  0  0  0  0
   -0.9086    3.7041   -0.0237 H   0  0  0  0  0  0  0  0  0  0  0  0
    1.1024    4.7794    0.4778 H   0  0  0  0  0  0  0  0  0  0  0  0
    0.5665   -3.8236   -0.2201 H   0  0  0  0  0  0  0  0  0  0  0  0
    2.7553   -4.0581   -1.0295 H   0  0  0  0  0  0  0  0  0  0  0  0
    4.1873   -2.0739   -1.4317 H   0  0  0  0  0  0  0  0  0  0  0  0
    3.3039    0.0593   -1.0613 H   0  0  0  0  0  0  0  0  0  0  0  0
   -2.9744   -1.7118    0.1729 H   0  0  0  0  0  0  0  0  0  0  0  0
   -2.2076   -2.6935   -1.0013 H   0  0  0  0  0  0  0  0  0  0  0  0
   -1.0690   -1.6494    2.3891 H   0  0  0  0  0  0  0  0  0  0  0  0
   -0.2223   -0.1687    1.8782 H   0  0  0  0  0  0  0  0  0  0  0  0
   -2.1641    0.5759    2.6916 H   0  0  0  0  0  0  0  0  0  0  0  0
   -3.1873   -0.6962    2.0903 H   0  0  0  0  0  0  0  0  0  0  0  0
  1  2  2  0
  2  3  1  0
  3  4  2  0
  4  5  1  0
  5  6  1  0
  5  7  1  0
  4  8  1  0
  8  9  2  0
  3 10  1  0
 10 11  2  0
 11 12  1  0
 12 13  2  0
 13 14  1  0
 14 15  2  0
 11 16  1  0
 16 17  1  0
 17 18  1  0
 16 19  1  0
 19 20  1  0
  9  1  1  0
 18  6  1  0
 15 10  1  0
 20  7  1  0
  1 21  1  0
  2 22  1  0
  6 23  1  0
  6 24  1  0
  7 25  1  0
  7 26  1  0
  8 27  1  0
  9 28  1  0
 12 29  1  0
 13 30  1  0
 14 31  1  0
 15 32  1  0
 17 33  1  0
 17 34  1  0
 19 35  1  0
 19 36  1  0
 20 37  1  0
 20 38  1  0
M  END
