
     RDKit          3D

 16 20  0  0  0  0  0  0  0  0999 V2000
   -0.3684    0.4846    1.1206 C   0  0  0  0  0  0  0  0  0  0  0  0
   -1.2636   -0.0934    0.1129 C   0  0  0  0  0  0  0  0  0  0  0  0
   -0.5514    0.6489   -0.9477 C   0  0  0  0  0  0  0  0  0  0  0  0
    0.3407    1.2232    0.0829 C   0  0  0  0  0  0  0  0  0  0  0  0
    1.2664    0.0872   -0.0990 C   0  0  0  0  0  0  0  0  0  0  0  0
    0.5517   -0.6671    0.9343 C   0  0  0  0  0  0  0  0  0  0  0  0
   -0.3436   -1.2238   -0.0728 C   0  0  0  0  0  0  0  0  0  0  0  0
    0.3672   -0.4602   -1.1297 C   0  0  0  0  0  0  0  0  0  0  0  0
   -0.6583    0.8485    2.0526 H   0  0  0  0  0  0  0  0  0  0  0  0
   -2.3000   -0.1651    0.1904 H   0  0  0  0  0  0  0  0  0  0  0  0
   -1.0204    1.2056   -1.6947 H   0  0  0  0  0  0  0  0  0  0  0  0
    0.6314    2.2236    0.1174 H   0  0  0  0  0  0  0  0  0  0  0  0
    2.3000    0.1713   -0.1891 H   0  0  0  0  0  0  0  0  0  0  0  0
    0.9948   -1.1858    1.7232 H   0  0  0  0  0  0  0  0  0  0  0  0
   -0.6257   -2.2218   -0.1683 H   0  0  0  0  0  0  0  0  0  0  0  0
    0.6793   -0.8760   -2.0330 H   0  0  0  0  0  0  0  0  0  0  0  0
  1  2  1  0
  2  3  1  0
  3  4  1  0
  4  5  1  0
  5  6  1  0
  6  7  1  0
  7  8  1  0
  4  1  1  0
  6  1  1  0
  7  2  1  0
  8  3  1  0
  8  5  1  0
  1  9  1  0
  2 10  1  0
  3 11  1  0
  4 12  1  0
  5 13  1  0
  6 14  1  0
  7 15  1  0
  8 16  1  0
M  END
