
     RDKit          3D

 33 35  0  0  0  0  0  0  0  0999 V2000
    3.5333    0.5725    0.0477 O   0  0  0  0  0  0  0  0  0  0  0  0
    2.5800    1.0782    0.9267 C   0  0  0  0  0  0  0  0  0  0  0  0
    1.2663    1.0490    0.2482 C   0  0  0  0  0  0  0  0  0  0  0  0
    0.9356   -0.4331   -0.0173 C   0  0  0  0  0  0  0  0  0  0  0  0
    1.9347   -0.9265   -0.9849 C   0  0  0  0  0  0  0  0  0  0  0  0
    3.3155   -0.7098   -0.3561 C   0  0  0  0  0  0  0  0  0  0  0  0
   -0.4521   -0.2518   -0.5032 C   0  0  0  0  0  0  0  0  0  0  0  0
   -1.0193    0.5225    0.6987 C   0  0  0  0  0  0  0  0  0  0  0  0
    0.0856    1.4633    1.0471 C   0  0  0  0  0  0  0  0  0  0  0  0
   -2.3022    1.1551    0.3184 C   0  0  0  0  0  0  0  0  0  0  0  0
   -3.1187    0.1187   -0.4403 C   0  0  0  0  0  0  0  0  0  0  0  0
   -2.6261   -1.2847   -0.1669 C   0  0  0  0  0  0  0  0  0  0  0  0
   -1.2249   -1.4951   -0.7535 C   0  0  0  0  0  0  0  0  0  0  0  0
    2.5933    0.5705    1.9082 H   0  0  0  0  0  0  0  0  0  0  0  0
    2.8739    2.1368    1.1254 H   0  0  0  0  0  0  0  0  0  0  0  0
    1.3556    1.5438   -0.7336 H   0  0  0  0  0  0  0  0  0  0  0  0
    0.9460   -1.0025    0.9419 H   0  0  0  0  0  0  0  0  0  0  0  0
    1.8490   -0.3951   -1.9319 H   0  0  0  0  0  0  0  0  0  0  0  0
    1.8589   -2.0400   -1.1327 H   0  0  0  0  0  0  0  0  0  0  0  0
    4.0433   -0.9605   -1.1421 H   0  0  0  0  0  0  0  0  0  0  0  0
    3.4393   -1.4685    0.4492 H   0  0  0  0  0  0  0  0  0  0  0  0
   -0.4798    0.4535   -1.3602 H   0  0  0  0  0  0  0  0  0  0  0  0
   -1.1864   -0.1829    1.5307 H   0  0  0  0  0  0  0  0  0  0  0  0
   -0.2257    2.5106    0.7810 H   0  0  0  0  0  0  0  0  0  0  0  0
    0.2836    1.5000    2.1460 H   0  0  0  0  0  0  0  0  0  0  0  0
   -2.1735    2.0452   -0.3443 H   0  0  0  0  0  0  0  0  0  0  0  0
   -2.8240    1.4840    1.2413 H   0  0  0  0  0  0  0  0  0  0  0  0
   -3.0998    0.2847   -1.5322 H   0  0  0  0  0  0  0  0  0  0  0  0
   -4.1463    0.1807   -0.0541 H   0  0  0  0  0  0  0  0  0  0  0  0
   -2.6531   -1.5666    0.8823 H   0  0  0  0  0  0  0  0  0  0  0  0
   -3.2928   -1.9680   -0.7316 H   0  0  0  0  0  0  0  0  0  0  0  0
   -0.7662   -2.3455   -0.2412 H   0  0  0  0  0  0  0  0  0  0  0  0
   -1.3031   -1.6384   -1.8669 H   0  0  0  0  0  0  0  0  0  0  0  0
  1  2  1  0
  2  3  1  0
  3  4  1  0
  4  5  1  0
  5  6  1  0
  4  7  1  0
  7  8  1  0
  8  9  1  0
  8 10  1  0
 10 11  1  0
 11 12  1  0
 12 13  1  0
  6  1  1  0
  9  3  1  0
 13  7  1  0
  2 14  1  0
  2 15  1  0
  3 16  1  0
  4 17  1  0
  5 18  1  0
  5 19  1  0
  6 20  1  0
  6 21  1  0
  7 22  1  0
  8 23  1  0
  9 24  1  0
  9 25  1  0
 10 26  1  0
 10 27  1  0
 11 28  1  0
 11 29  1  0
 12 30  1  0
 12 31  1  0
 13 32  1  0
 13 33  1  0
M  END
