
     RDKit          3D

 30 32  0  0  0  0  0  0  0  0999 V2000
   -3.2119   -0.5011   -0.1166 O   0  0  0  0  0  0  0  0  0  0  0  0
   -2.2046   -1.3907    0.1353 C   0  0  0  0  0  0  0  0  0  0  0  0
   -1.0196   -0.6788    0.6969 C   0  0  0  0  0  0  0  0  0  0  0  0
   -0.6261    0.3393   -0.3863 C   0  0  0  0  0  0  0  0  0  0  0  0
   -1.7059    1.3679   -0.3883 C   0  0  0  0  0  0  0  0  0  0  0  0
   -2.9664    0.7972    0.2505 C   0  0  0  0  0  0  0  0  0  0  0  0
    0.6964    0.7971    0.0905 C   0  0  0  0  0  0  0  0  0  0  0  0
    1.2938   -0.3913    0.8336 C   0  0  0  0  0  0  0  0  0  0  0  0
    0.2303   -1.4916    0.7564 C   0  0  0  0  0  0  0  0  0  0  0  0
    2.5491   -0.7618    0.1193 C   0  0  0  0  0  0  0  0  0  0  0  0
    2.9670    0.4760   -0.6656 C   0  0  0  0  0  0  0  0  0  0  0  0
    1.6305    1.0346   -1.0810 C   0  0  0  0  0  0  0  0  0  0  0  0
   -1.8863   -1.8188   -0.8576 H   0  0  0  0  0  0  0  0  0  0  0  0
   -2.5196   -2.2709    0.7343 H   0  0  0  0  0  0  0  0  0  0  0  0
   -1.2069   -0.1805    1.6571 H   0  0  0  0  0  0  0  0  0  0  0  0
   -0.5609   -0.2236   -1.3298 H   0  0  0  0  0  0  0  0  0  0  0  0
   -1.9381    1.6136   -1.4535 H   0  0  0  0  0  0  0  0  0  0  0  0
   -1.4025    2.2245    0.2106 H   0  0  0  0  0  0  0  0  0  0  0  0
   -3.8031    1.4206   -0.1460 H   0  0  0  0  0  0  0  0  0  0  0  0
   -2.9624    0.9492    1.3565 H   0  0  0  0  0  0  0  0  0  0  0  0
    0.6739    1.7045    0.7229 H   0  0  0  0  0  0  0  0  0  0  0  0
    1.4457   -0.0956    1.8905 H   0  0  0  0  0  0  0  0  0  0  0  0
    0.2992   -2.1836    1.5967 H   0  0  0  0  0  0  0  0  0  0  0  0
    0.3724   -1.9771   -0.2315 H   0  0  0  0  0  0  0  0  0  0  0  0
    3.3320   -1.0068    0.8942 H   0  0  0  0  0  0  0  0  0  0  0  0
    2.4546   -1.6491   -0.5097 H   0  0  0  0  0  0  0  0  0  0  0  0
    3.5405    1.1476   -0.0099 H   0  0  0  0  0  0  0  0  0  0  0  0
    3.5443    0.1497   -1.5554 H   0  0  0  0  0  0  0  0  0  0  0  0
    1.6907    2.1230   -1.2463 H   0  0  0  0  0  0  0  0  0  0  0  0
    1.2939    0.4766   -1.9680 H   0  0  0  0  0  0  0  0  0  0  0  0
  1  2  1  0
  2  3  1  0
  3  4  1  0
  4  5  1  0
  5  6  1  0
  4  7  1  0
  7  8  1  0
  8  9  1  0
  8 10  1  0
 10 11  1  0
 11 12  1  0
  6  1  1  0
  9  3  1  0
 12  7  1  0
  2 13  1  0
  2 14  1  0
  3 15  1  0
  4 16  1  0
  5 17  1  0
  5 18  1  0
  6 19  1  0
  6 20  1  0
  7 21  1  0
  8 22  1  0
  9 23  1  0
  9 24  1  0
 10 25  1  0
 10 26  1  0
 11 27  1  0
 11 28  1  0
 12 29  1  0
 12 30  1  0
M  END
