
     RDKit          3D

 23 24  0  0  0  0  0  0  0  0999 V2000
    1.3015    0.3528   -0.1667 C   0  0  0  0  0  0  0  0  0  0  0  0
    1.2009   -0.1165    1.2685 C   0  0  0  0  0  0  0  0  0  0  0  0
   -0.0140    0.1485    1.8481 O   0  0  0  0  0  0  0  0  0  0  0  0
   -1.0706   -0.5674    1.3207 C   0  0  0  0  0  0  0  0  0  0  0  0
   -1.3332   -0.2083   -0.1420 C   0  0  0  0  0  0  0  0  0  0  0  0
   -0.5301   -1.1285   -0.9839 C   0  0  0  0  0  0  0  0  0  0  0  0
    0.9310   -0.8175   -1.0453 C   0  0  0  0  0  0  0  0  0  0  0  0
    0.4354    1.5537   -0.4273 C   0  0  0  0  0  0  0  0  0  0  0  0
   -1.0295    1.2409   -0.3057 C   0  0  0  0  0  0  0  0  0  0  0  0
    2.3436    0.6383   -0.3737 H   0  0  0  0  0  0  0  0  0  0  0  0
    1.9792    0.4134    1.8451 H   0  0  0  0  0  0  0  0  0  0  0  0
    1.4873   -1.1996    1.3031 H   0  0  0  0  0  0  0  0  0  0  0  0
   -1.9856   -0.2493    1.8699 H   0  0  0  0  0  0  0  0  0  0  0  0
   -0.8669   -1.6416    1.3811 H   0  0  0  0  0  0  0  0  0  0  0  0
   -2.4104   -0.3590   -0.3886 H   0  0  0  0  0  0  0  0  0  0  0  0
   -0.6398   -2.1621   -0.5387 H   0  0  0  0  0  0  0  0  0  0  0  0
   -0.9645   -1.2382   -2.0152 H   0  0  0  0  0  0  0  0  0  0  0  0
    1.5587   -1.6829   -0.6789 H   0  0  0  0  0  0  0  0  0  0  0  0
    1.2222   -0.6811   -2.1013 H   0  0  0  0  0  0  0  0  0  0  0  0
    0.6376    1.8729   -1.4795 H   0  0  0  0  0  0  0  0  0  0  0  0
    0.7617    2.3444    0.2969 H   0  0  0  0  0  0  0  0  0  0  0  0
   -1.6262    1.7309   -1.1211 H   0  0  0  0  0  0  0  0  0  0  0  0
   -1.3884    1.7563    0.6345 H   0  0  0  0  0  0  0  0  0  0  0  0
  1  2  1  0
  2  3  1  0
  3  4  1  0
  4  5  1  0
  5  6  1  0
  6  7  1  0
  1  8  1  0
  8  9  1  0
  9  5  1  0
  7  1  1  0
  1 10  1  0
  2 11  1  0
  2 12  1  0
  4 13  1  0
  4 14  1  0
  5 15  1  0
  6 16  1  0
  6 17  1  0
  7 18  1  0
  7 19  1  0
  8 20  1  0
  8 21  1  0
  9 22  1  0
  9 23  1  0
M  END
